version 2
run WithBeaconing-0-20181117-23:59:35-3907
attr configname WithBeaconing
attr datetime 20181117-23:59:35
attr experiment WithBeaconing
attr inifile omnetpp.ini
attr iterationvars ""
attr iterationvarsf ""
attr measurement ""
attr network HelloScenario
attr processid 3907
attr repetition 0
attr replication #0
attr resultdir results
attr runnumber 0
attr seedset 0
param *.rsu[*].appl.sendBeacons true
param *.node[*].appl.sendBeacons true
param **.debug false
param **.coreDebug false
param *.playgroundSizeX 2500m
param *.playgroundSizeY 2500m
param *.playgroundSizeZ 50m
param *.annotations.draw true
param *.manager.updateInterval 1s
param *.manager.host "\"localhost\""
param *.manager.port 9999
param *.manager.autoShutdown true
param *.manager.launchConfig "xmldoc(\"hello.launchd.xml\")"
param *.rsu[0].mobility.x 2000
param *.rsu[0].mobility.y 2000
param *.rsu[0].mobility.z 3
param *.rsu[*].applType "\"MyVeinsApp\""
param *.rsu[*].appl.headerLength "80 bit"
param *.rsu[*].appl.sendBeacons false
param *.rsu[*].appl.dataOnSch false
param *.rsu[*].appl.beaconInterval 1s
param *.rsu[*].appl.beaconUserPriority 7
param *.rsu[*].appl.dataUserPriority 5
param *.connectionManager.sendDirect true
param *.connectionManager.maxInterfDist 2600m
param *.connectionManager.drawMaxIntfDist false
param *.**.nic.mac1609_4.useServiceChannel false
param *.**.nic.mac1609_4.txPower 20mW
param *.**.nic.mac1609_4.bitrate 6Mbps
param *.**.nic.phy80211p.sensitivity -89dBm
param *.**.nic.phy80211p.useThermalNoise true
param *.**.nic.phy80211p.thermalNoise -110dBm
param *.**.nic.phy80211p.decider "xmldoc(\"config.xml\")"
param *.**.nic.phy80211p.analogueModels "xmldoc(\"config.xml\")"
param *.**.nic.phy80211p.usePropagationDelay true
param *.**.nic.phy80211p.antenna "xmldoc(\"antenna.xml\", \"/root/Antenna[@id='monopole']\")"
param *.node[*].applType "\"MyVeinsApp\""
param *.node[*].appl.headerLength "80 bit"
param *.node[*].appl.sendBeacons false
param *.node[*].appl.dataOnSch false
param *.node[*].appl.beaconInterval 1s
param *.node[*].veinsmobilityType.debug true
param *.node[*].veinsmobility.x 0
param *.node[*].veinsmobility.y 0
param *.node[*].veinsmobility.z 1.895
param *.node[*0].veinsmobility.accidentCount 1
param *.node[*0].veinsmobility.accidentStart 75s
param *.node[*0].veinsmobility.accidentDuration 50s

vector 0 HelloScenario.node[0].veinsmobility posx ETV
vector 1 HelloScenario.node[0].veinsmobility posy ETV
vector 2 HelloScenario.node[0].veinsmobility speed ETV
vector 3 HelloScenario.node[0].veinsmobility acceleration ETV
vector 4 HelloScenario.node[0].veinsmobility co2emission ETV
vector 5 HelloScenario.node[1].veinsmobility posx ETV
vector 6 HelloScenario.node[1].veinsmobility posy ETV
vector 7 HelloScenario.node[1].veinsmobility speed ETV
vector 8 HelloScenario.node[1].veinsmobility acceleration ETV
vector 9 HelloScenario.node[1].veinsmobility co2emission ETV
9	158	7	3.23687224832
9	198	8	4.31139383808
9	238	9	5.39921798656
9	278	10	6.50477888
8	158	7	2
8	198	8	2
8	238	9	2
8	278	10	2
7	118	6	2
7	158	7	4
7	198	8	6
7	238	9	8
7	278	10	10
6	78	5	26.65
6	118	6	26.65
6	158	7	26.65
6	198	8	26.65
6	238	9	26.65
6	278	10	26.65
5	78	5	30.1
5	118	6	30.1
5	158	7	32.1
5	198	8	36.1
5	238	9	42.1
5	278	10	50.1
vector 10 HelloScenario.node[2].veinsmobility posx ETV
vector 11 HelloScenario.node[2].veinsmobility posy ETV
11	318	11	26.65
10	318	11	526
0	21	2	30.1
0	40	3	30.1
0	59	4	31.1
0	78	5	33.1
0	118	6	36.1
0	158	7	40.1
0	198	8	45.1
0	238	9	51.1
0	278	10	58.1
0	318	11	66.1
0	354	12	75.1
0	373	13	85.1
0	392	14	96.1
0	411	15	108.1
0	430	16	121.1
0	449	17	135
0	468	18	148.9
0	487	19	162.8
0	506	20	176.7
0	525	21	190.6
0	544	22	204.5
0	563	23	218.4
0	582	24	232.3
0	601	25	246.2
0	620	26	260.1
0	639	27	274
0	658	28	287.9
0	677	29	301.8
0	700	30	315.7
0	723	31	329.6
0	746	32	343.5
0	769	33	357.4
0	792	34	371.3
0	815	35	385.2
1	21	2	26.65
1	40	3	26.65
1	59	4	26.65
1	78	5	26.65
1	118	6	26.65
1	158	7	26.65
1	198	8	26.65
1	238	9	26.65
1	278	10	26.65
1	318	11	26.65
1	354	12	26.65
1	373	13	26.65
1	392	14	26.65
1	411	15	26.65
1	430	16	26.65
1	449	17	26.65
1	468	18	26.65
1	487	19	26.65
1	506	20	26.65
1	525	21	26.65
1	544	22	26.65
1	563	23	26.65
1	582	24	26.65
1	601	25	26.65
1	620	26	26.65
1	639	27	26.65
1	658	28	26.65
1	677	29	26.65
1	700	30	26.65
1	723	31	26.65
1	746	32	26.65
1	769	33	26.65
1	792	34	26.65
1	815	35	26.65
2	40	3	1
2	59	4	2
2	78	5	3
2	118	6	4
2	158	7	5
2	198	8	6
2	238	9	7
2	278	10	8
2	318	11	9
2	354	12	10
2	373	13	11
2	392	14	12
2	411	15	13
2	430	16	13.9
2	449	17	13.9
2	468	18	13.9
2	487	19	13.9
2	506	20	13.9
2	525	21	13.9
2	544	22	13.9
2	563	23	13.9
2	582	24	13.9
2	601	25	13.9
2	620	26	13.9
2	639	27	13.9
2	658	28	13.9
2	677	29	13.9
2	700	30	13.9
2	723	31	13.9
2	746	32	13.9
2	769	33	13.9
2	792	34	13.9
2	815	35	13.9
3	59	4	1
3	78	5	1
3	118	6	1
3	158	7	1
3	198	8	1
3	238	9	1
3	278	10	1
3	318	11	1
3	354	12	1
3	373	13	1
3	392	14	1
3	411	15	1
3	430	16	0.9
3	449	17	0
3	468	18	0
3	487	19	0
3	506	20	0
3	525	21	0
3	544	22	0
3	563	23	0
3	582	24	0
3	601	25	0
3	620	26	0
3	639	27	0
3	658	28	0
3	677	29	0
3	700	30	0
3	723	31	0
3	746	32	0
3	769	33	0
3	792	34	0
3	815	35	0
4	59	4	1.68921903104
4	78	5	1.98021422976
4	118	6	2.27287224832
4	158	7	2.56774736
4	198	8	2.86539383808
4	238	9	3.16636595584
4	278	10	3.47121798656
4	318	11	3.78050420352
4	354	12	4.09477888
4	373	13	4.41459628928
4	392	14	4.74051070464
4	411	15	5.07307639936
4	430	16	5.0435404753267
4	449	17	2.0286304753267
4	468	18	2.0286304753267
4	487	19	2.0286304753267
4	506	20	2.0286304753267
4	525	21	2.0286304753267
4	544	22	2.0286304753267
4	563	23	2.0286304753267
4	582	24	2.0286304753267
4	601	25	2.0286304753267
4	620	26	2.0286304753267
4	639	27	2.0286304753267
4	658	28	2.0286304753267
4	677	29	2.0286304753267
4	700	30	2.0286304753267
4	723	31	2.0286304753267
4	746	32	2.0286304753267
4	769	33	2.0286304753267
4	792	34	2.0286304753267
4	815	35	2.0286304753267

